
 Fire Dynamics Simulator

 Current Date     : October 23, 2019  16:18:22
 Revision         : FDS6.7.1-0-g14cc738-HEAD
 Revision Date    : Mon Feb 4 12:26:25 2019 -0500
 Compiler         : Intel ifort 19.0.1.144
 Compilation Date : Wed 02/13/2019  03:33 PM

 MPI Enabled;    Number of MPI Processes:       2
 OpenMP Enabled; Number of OpenMP Threads:      8

 MPI version: 3.1
 MPI library version: Intel(R) MPI Library 2019 for Windows* OS


 Job TITLE        : Demo Model
 Job ID string    : CFD-03-10


 Grid Dimensions, Mesh     1

   Cells in the X Direction           110
   Cells in the Y Direction            10
   Cells in the Z Direction            40
   Number of Grid Cells             44000


 Physical Dimensions, Mesh     1

   Length (m)                      11.000
   Width  (m)                       1.000
   Height (m)                       4.000
   Initial Time Step (s)            0.079

 Grid Dimensions, Mesh     2

   Cells in the X Direction           180
   Cells in the Y Direction            20
   Cells in the Z Direction            40
   Number of Grid Cells            144000


 Physical Dimensions, Mesh     2

   Length (m)                      18.000
   Width  (m)                       2.000
   Height (m)                       4.000
   Initial Time Step (s)            0.079

Total Number of Grid Cells        188000


 Miscellaneous Parameters

   Simulation Start Time (s)          0.0
   Simulation End Time (s)          645.0
   LES Calculation
   Eddy Viscosity:           Smagorinsky (C_SMAGORINSKY = 0.20)
   Near-wall Eddy Viscosity: Smagorinsky with Van Driest damping (C_SMAGORINSKY = 0.20)
   Turbulent Prandtl Number          0.50
   Turbulent Schmidt Number          0.50
   Ambient Temperature (C)          20.00


 Mass Fraction Transformation Matrix to Convert Species Mixtures (Columns) to Primitive Species (Rows)

                         AIR     
   NITROGEN              0.763077
   OXYGEN                0.231181
   CARBON DIOXIDE        0.000592
   WATER VAPOR           0.005149


 Primitive Species Information

   NITROGEN
   Gas Species
   Molecular Weight (g/mol)            28.01340
   Ambient Density (kg/m^3)            1.165
   Enthalpy of Formation (J/kg)        0.00E+00

   OXYGEN
   Gas Species
   Molecular Weight (g/mol)            31.99880
   Ambient Density (kg/m^3)            1.330
   Enthalpy of Formation (J/kg)        0.00E+00

   CARBON DIOXIDE
   Gas Species
   Molecular Weight (g/mol)            44.00950
   Ambient Density (kg/m^3)            1.830
   Enthalpy of Formation (J/kg)       -8.94E+06

   WATER VAPOR
   Gas Species
   Molecular Weight (g/mol)            18.01528
   Ambient Density (kg/m^3)            0.749
   Enthalpy of Formation (J/kg)       -1.34E+07


 Tracked (Lumped) Species Information

   AIR
   Molecular Weight (g/mol)            28.76564
   Ambient Density (kg/m^3)            1.196
   Initial Mass Fraction               1.000
   Enthalpy of Formation (J/kg)     -7.44E+04

   Sub Species                    Mass Fraction     Mole Fraction
   NITROGEN                       7.630774E-01      7.835682E-01
   OXYGEN                         2.311814E-01      2.078229E-01
   CARBON DIOXIDE                 5.919362E-04      3.869034E-04
   WATER VAPOR                    5.149269E-03      8.222023E-03
 
     Viscosity (kg/m/s) Ambient,  293 K:  1.80E-05
                                  500 K:  2.61E-05
                                 1000 K:  4.13E-05
                                 1500 K:  5.37E-05
   Therm. Cond. (W/m/K) Ambient,  293 K:  2.56E-02
                                  500 K:  3.81E-02
                                 1000 K:  6.68E-02
                                 1500 K:  9.24E-02
        Enthalpy (J/kg) Ambient,  293 K: -7.97E+04
                                  500 K:  1.33E+05
                                 1000 K:  6.82E+05
                                 1500 K:  1.28E+06
    Spec. Heat (J/kg/K) Ambient,  293 K:  1.02E+03
                                  500 K:  1.04E+03
                                 1000 K:  1.16E+03
                                 1500 K:  1.23E+03
   Diff. Coeff. (m^2/s) Ambient,  293 K:  1.99E-05
                                  500 K:  4.96E-05
                                 1000 K:  1.58E-04
                                 1500 K:  3.09E-04


 Material Information

   1 GYPSUM                                                      
     Emissivity                      0.900
     Density (kg/m3)                1440.0
     Specific Heat (kJ/kg/K)      8.40E-01
     Conductivity (W/m/K)           0.4800


 Surface Conditions

   0 INERT

   1 WALL (DEFAULT)
     Material List
          1  GYPSUM
     Layer  1
        Thickness   (m):  0.10000
        Density (kg/m3):  1440.00
        GYPSUM, Mass fraction:    1.00
     Total surface density   144.000 kg/m2
     Reaction products considered from the first  0.50 layers.
     Solid Phase Node, Layer, Coordinates(m):
                    0      1       0.0000000
                    1      1       0.0005263
                    2      1       0.0015789
                    3      1       0.0036842
                    4      1       0.0078947
                    5      1       0.0163158
                    6      1       0.0331579
                    7      1       0.0668421
                    8      1       0.0836842
                    9      1       0.0921053
                   10      1       0.0963158
                   11      1       0.0984211
                   12      1       0.0994737
                   13      1       0.1000000
     Exposed Backing

   2 INVENT
     Normal Velocity (m/s)        -0.225
     AIR Mass Fraction         1.000

   3 OPEN

   4 OPEN
     Passive Vent to Atmosphere

   5 MIRROR
     Symmetry Plane

   6 INTERPOLATED

   7 PERIODIC

   8 HVAC

   9 MASSLESS TRACER

  10 DROPLET

  11 VEGETATION

  12 EVACUATION_OUTFLOW
     Normal Velocity (m/s)         0.000

  13 MASSLESS TARGET

  14 PERIODIC WIND

  15 SLICE


 Device Coordinates

     1 Coords:     0.10     0.50     2.00, Make: null, ID: INLET PRESSURE, Quantity: PRESSURE
     2 Coords:    28.90     1.00     2.00, Make: null, ID: EXIT PRESSURE, Quantity: PRESSURE
     3 Coords:    28.00     1.00     2.00, Make: null, ID: Uinst, Quantity: U-VELOCITY
     4 Coords:    28.00     1.00     2.00, Make: null, ID: Vinst, Quantity: V-VELOCITY
     5 Coords:    28.00     1.00     2.00, Make: null, ID: Winst, Quantity: W-VELOCITY
     6 Coords:    28.00     1.00     2.00, Make: null, ID: QDOT, Quantity: VOLUME FLOW


 Slice File Information, Mesh     1

   Sampling Interval (s)             0.645

   1 Nodes:   0 110  10  10   0  40, Quantity: VELOCITY
   2 Nodes:   0 110  10  10   0  40, Quantity: U-VELOCITY
   3 Nodes:   0 110  10  10   0  40, Quantity: V-VELOCITY
   4 Nodes:   0 110  10  10   0  40, Quantity: W-VELOCITY
   5 Nodes:   0 110  10  10   0  40, Quantity: PRESSURE
   6 Nodes:   0 110   0  10  20  20, Quantity: VELOCITY
   7 Nodes:   0 110   0  10  20  20, Quantity: U-VELOCITY
   8 Nodes:   0 110   0  10  20  20, Quantity: V-VELOCITY
   9 Nodes:   0 110   0  10  20  20, Quantity: W-VELOCITY
  10 Nodes:   0 110   0  10  20  20, Quantity: PRESSURE


 Boundary File Information

   Sampling Interval (s)             1.290

   1 Quantity: FRICTION VELOCITY


 GlMat Information

   Global Pressure solver       : Intel MKL Cluster Sparse Solver
 
 
   Using GLMAT as pressure solver. List of H unknown numbers per proc:
    MPI Process, H unknowns =           0       44000 , Peak Factorization Memory Required (MB)=         332

 Run Time Diagnostics

       Time Step       1   October 23, 2019  16:18:24
       Step Size:    0.791E-01 s, Total Time:       0.08 s
       Pressure Iterations:      1
       Maximum Velocity Error:  0.35E-17 on Mesh   1 at ( 111  10   2)
       Maximum Pressure Error:  0.00E+00 on Mesh   1 at (   0   0   0)
       ---------------------------------------------------------------
       Mesh    1
       Max CFL number:  0.29E-01 at (  84,   7,  14)
       Max divergence:  0.31E-12 at (   6,   4,  19)
       Min divergence: -0.32E-12 at (  48,   2,   8)
       Max VN number:   0.22E-01 at (   9,   2,  26)
       Mesh    2
       Max CFL number:  0.26E-01 at (   1,  11,  10)
       Max divergence:  0.23E-12 at (  37,   7,  16)
       Min divergence: -0.16E-12 at (  47,   6,  26)
       Max VN number:   0.23E-01 at (  58,   2,  10)
 
       Time Step       2   October 23, 2019  16:18:25
       Step Size:    0.791E-01 s, Total Time:       0.16 s
       Pressure Iterations:      1
       Maximum Velocity Error:  0.14E-16 on Mesh   1 at ( 111  10   1)
       Maximum Pressure Error:  0.00E+00 on Mesh   1 at (   0   0   0)
       ---------------------------------------------------------------
       Mesh    1
       Max CFL number:  0.44E-01 at ( 109,  10,  19)
       Max divergence:  0.60E-12 at (   6,   4,  19)
       Min divergence: -0.63E-12 at (  48,   2,   8)
       Max VN number:   0.22E-01 at (   9,   2,  26)
       Mesh    2
       Max CFL number:  0.43E-01 at (   1,  10,  10)
       Max divergence:  0.32E-12 at (   9,   2,  39)
       Min divergence: -0.24E-12 at (  25,  12,  18)
       Max VN number:   0.23E-01 at (  58,   2,  10)
 
       Time Step       3   October 23, 2019  16:18:25
       Step Size:    0.791E-01 s, Total Time:       0.24 s
       Pressure Iterations:      1
       Maximum Velocity Error:  0.14E-16 on Mesh   1 at ( 111  10   5)
       Maximum Pressure Error:  0.00E+00 on Mesh   1 at (   0   0   0)
       ---------------------------------------------------------------
       Mesh    1
       Max CFL number:  0.63E-01 at ( 110,  10,   1)
       Max divergence:  0.84E-12 at (   6,   4,  19)
       Min divergence: -0.98E-12 at (  48,   2,   8)
       Max VN number:   0.22E-01 at (   9,   2,  26)
       Mesh    2
       Max CFL number:  0.63E-01 at (   1,  10,   1)
       Max divergence:  0.46E-12 at (  37,   7,  16)
       Min divergence: -0.32E-12 at (  25,  12,  18)
       Max VN number:   0.31E-01 at (   1,  10,  32)
 
       Time Step       4   October 23, 2019  16:18:25
       Step Size:    0.791E-01 s, Total Time:       0.32 s
       Pressure Iterations:      1
       Maximum Velocity Error:  0.14E-16 on Mesh   1 at ( 111  10   2)
       Maximum Pressure Error:  0.00E+00 on Mesh   1 at (   0   0   0)
       ---------------------------------------------------------------
       Mesh    1
       Max CFL number:  0.84E-01 at ( 110,  10,   1)
       Max divergence:  0.12E-11 at (   6,   4,  19)
       Min divergence: -0.13E-11 at (  48,   2,   8)
       Max VN number:   0.22E-01 at (  17,   7,  29)
       Mesh    2
       Max CFL number:  0.84E-01 at (   1,  10,   1)
       Max divergence:  0.57E-12 at (  37,   7,  16)
       Min divergence: -0.39E-12 at (   5,   6,   9)
       Max VN number:   0.38E-01 at (   1,  10,  32)
 
       Time Step       5   October 23, 2019  16:18:25
       Step Size:    0.791E-01 s, Total Time:       0.40 s
       Pressure Iterations:      1
       Maximum Velocity Error:  0.28E-16 on Mesh   1 at ( 111  10  10)
       Maximum Pressure Error:  0.00E+00 on Mesh   1 at (   0   0   0)
       ---------------------------------------------------------------
       Mesh    1
       Max CFL number:  0.10E+00 at ( 110,  10,   1)
       Max divergence:  0.14E-11 at (   6,   4,  19)
       Min divergence: -0.16E-11 at (  48,   2,   8)
       Max VN number:   0.22E-01 at (  17,   7,  29)
       Mesh    2
       Max CFL number:  0.10E+00 at (   1,  10,   1)
       Max divergence:  0.69E-12 at (   5,   6,  28)
       Min divergence: -0.49E-12 at (   5,   6,   9)
       Max VN number:   0.46E-01 at (   1,  10,  32)
 
       Time Step       6   October 23, 2019  16:18:26
       Step Size:    0.791E-01 s, Total Time:       0.47 s
       Pressure Iterations:      1
       Maximum Velocity Error:  0.14E-16 on Mesh   1 at ( 111   9   7)
       Maximum Pressure Error:  0.00E+00 on Mesh   1 at (   0   0   0)
       ---------------------------------------------------------------
       Mesh    1
       Max CFL number:  0.12E+00 at ( 110,  10,   1)
       Max divergence:  0.16E-11 at (   6,   4,  19)
       Min divergence: -0.18E-11 at (  48,   2,   8)
       Max VN number:   0.22E-01 at (  17,   7,  29)
       Mesh    2
       Max CFL number:  0.12E+00 at (   1,  10,   1)
       Max divergence:  0.80E-12 at (   6,  11,  12)
       Min divergence: -0.59E-12 at (   5,   6,   9)
       Max VN number:   0.52E-01 at (   1,  10,  32)
 
       Time Step       7   October 23, 2019  16:18:26
       Step Size:    0.791E-01 s, Total Time:       0.55 s
       Pressure Iterations:      1
       Maximum Velocity Error:  0.28E-16 on Mesh   1 at ( 111   9   5)
       Maximum Pressure Error:  0.00E+00 on Mesh   1 at (   0   0   0)
       ---------------------------------------------------------------
       Mesh    1
       Max CFL number:  0.14E+00 at ( 110,  10,   1)
       Max divergence:  0.18E-11 at (   6,   4,  19)
       Min divergence: -0.21E-11 at (  48,   2,   8)
       Max VN number:   0.24E-01 at ( 110,  10,   1)
       Mesh    2
       Max CFL number:  0.14E+00 at (   1,  10,   1)
       Max divergence:  0.90E-12 at (   6,  11,  12)
       Min divergence: -0.68E-12 at (   5,   6,   9)
       Max VN number:   0.58E-01 at (   1,  10,  32)
 
       Time Step       8   October 23, 2019  16:18:26
       Step Size:    0.791E-01 s, Total Time:       0.63 s
       Pressure Iterations:      1
       Maximum Velocity Error:  0.28E-16 on Mesh   1 at ( 111  10   2)
       Maximum Pressure Error:  0.00E+00 on Mesh   1 at (   0   0   0)
       ---------------------------------------------------------------
       Mesh    1
       Max CFL number:  0.15E+00 at ( 110,  10,   1)
       Max divergence:  0.20E-11 at (   6,   4,  19)
       Min divergence: -0.24E-11 at (  48,   2,   8)
       Max VN number:   0.30E-01 at ( 110,  10,   1)
       Mesh    2
       Max CFL number:  0.15E+00 at (   1,  10,   1)
       Max divergence:  0.10E-11 at (   6,  11,  12)
       Min divergence: -0.77E-12 at (   5,   6,   9)
       Max VN number:   0.63E-01 at (   1,  10,  32)
 
       Time Step       9   October 23, 2019  16:18:27
       Step Size:    0.791E-01 s, Total Time:       0.71 s
       Pressure Iterations:      1
       Maximum Velocity Error:  0.28E-16 on Mesh   1 at ( 111   6   2)
       Maximum Pressure Error:  0.00E+00 on Mesh   1 at (   0   0   0)
       ---------------------------------------------------------------
       Mesh    1
       Max CFL number:  0.17E+00 at ( 110,  10,   1)
       Max divergence:  0.22E-11 at (   6,   4,  19)
       Min divergence: -0.26E-11 at (  48,   2,   8)
       Max VN number:   0.36E-01 at ( 110,  10,   1)
       Mesh    2
       Max CFL number:  0.17E+00 at (   1,  10,   1)
       Max divergence:  0.11E-11 at (   6,  11,  12)
       Min divergence: -0.83E-12 at (   5,   6,   9)
       Max VN number:   0.67E-01 at (   1,  10,  32)
 
       Time Step      10   October 23, 2019  16:18:27
       Step Size:    0.791E-01 s, Total Time:       0.79 s
       Pressure Iterations:      1
       Maximum Velocity Error:  0.28E-16 on Mesh   1 at ( 111   2   3)
       Maximum Pressure Error:  0.00E+00 on Mesh   1 at (   0   0   0)
       ---------------------------------------------------------------
       Mesh    1
       Max CFL number:  0.18E+00 at ( 110,  10,   1)
       Max divergence:  0.23E-11 at (   6,   4,  19)
       Min divergence: -0.28E-11 at (  48,   2,   8)
       Max VN number:   0.42E-01 at ( 110,  10,   1)
       Mesh    2
       Max CFL number:  0.18E+00 at (   1,  10,   1)
       Max divergence:  0.12E-11 at (   6,  11,  12)
       Min divergence: -0.88E-12 at (   5,   6,   9)
       Max VN number:   0.70E-01 at (   1,  10,  32)
 
       Time Step      20   October 23, 2019  16:18:30
       Step Size:    0.791E-01 s, Total Time:       1.58 s
       Pressure Iterations:      1
       Maximum Velocity Error:  0.28E-16 on Mesh   1 at ( 111   8   1)
       Maximum Pressure Error:  0.00E+00 on Mesh   1 at (   0   0   0)
       ---------------------------------------------------------------
       Mesh    1
       Max CFL number:  0.25E+00 at ( 110,  10,  32)
       Max divergence:  0.32E-11 at (   6,   4,  19)
       Min divergence: -0.38E-11 at (  48,   2,   8)
       Max VN number:   0.72E-01 at ( 110,  10,   1)
       Mesh    2
       Max CFL number:  0.25E+00 at (   1,  10,  32)
       Max divergence:  0.16E-11 at (   5,   6,  28)
       Min divergence: -0.12E-11 at (   5,   6,   9)
       Max VN number:   0.71E-01 at (   2,  10,  40)
 
       Time Step      30   October 23, 2019  16:18:33
       Step Size:    0.791E-01 s, Total Time:       2.37 s
       Pressure Iterations:      1
       Maximum Velocity Error:  0.28E-16 on Mesh   1 at ( 111   5   1)
       Maximum Pressure Error:  0.00E+00 on Mesh   1 at (   0   0   0)
       ---------------------------------------------------------------
       Mesh    1
       Max CFL number:  0.24E+00 at ( 110,  10,  31)
       Max divergence:  0.34E-11 at (   6,   4,  19)
       Min divergence: -0.40E-11 at (  48,   2,   8)
       Max VN number:   0.69E-01 at ( 110,  10,   1)
       Mesh    2
       Max CFL number:  0.25E+00 at (   1,  10,  11)
       Max divergence:  0.17E-11 at (   5,   6,  28)
       Min divergence: -0.13E-11 at (   5,   6,   9)
       Max VN number:   0.70E-01 at (   2,  10,  40)
 
       Time Step      40   October 23, 2019  16:18:36
       Step Size:    0.791E-01 s, Total Time:       3.16 s
       Pressure Iterations:      1
       Maximum Velocity Error:  0.28E-16 on Mesh   1 at ( 111   3   1)
       Maximum Pressure Error:  0.00E+00 on Mesh   1 at (   0   0   0)
       ---------------------------------------------------------------
       Mesh    1
       Max CFL number:  0.24E+00 at ( 110,  10,  38)
       Max divergence:  0.35E-11 at (   6,   4,  19)
       Min divergence: -0.41E-11 at (  48,   2,   8)
       Max VN number:   0.68E-01 at ( 110,  10,   1)
       Mesh    2
       Max CFL number:  0.25E+00 at (   2,  10,  34)
       Max divergence:  0.18E-11 at (   5,   6,  28)
       Min divergence: -0.13E-11 at (   5,   6,   9)
       Max VN number:   0.76E-01 at (   2,   9,  19)
 
       Time Step      50   October 23, 2019  16:18:39
       Step Size:    0.791E-01 s, Total Time:       3.95 s
       Pressure Iterations:      1
       Maximum Velocity Error:  0.28E-16 on Mesh   1 at ( 111   8   1)
       Maximum Pressure Error:  0.00E+00 on Mesh   1 at (   0   0   0)
       ---------------------------------------------------------------
       Mesh    1
       Max CFL number:  0.22E+00 at ( 110,  10,   7)
       Max divergence:  0.35E-11 at (   6,   4,  19)
       Min divergence: -0.42E-11 at (  48,   2,   8)
       Max VN number:   0.63E-01 at ( 110,  10,  40)
       Mesh    2
       Max CFL number:  0.25E+00 at (   1,  10,  38)
       Max divergence:  0.18E-11 at (   5,   6,  28)
       Min divergence: -0.13E-11 at (   5,   6,   9)
       Max VN number:   0.71E-01 at (   3,   9,  12)
 
       Time Step      60   October 23, 2019  16:18:42
       Step Size:    0.791E-01 s, Total Time:       4.74 s
       Pressure Iterations:      1
       Maximum Velocity Error:  0.28E-16 on Mesh   1 at ( 111   4   1)
       Maximum Pressure Error:  0.00E+00 on Mesh   1 at (   0   0   0)
       ---------------------------------------------------------------
       Mesh    1
       Max CFL number:  0.21E+00 at ( 110,  10,   8)
       Max divergence:  0.36E-11 at (   6,   4,  19)
       Min divergence: -0.42E-11 at (  48,   2,   8)
       Max VN number:   0.60E-01 at ( 110,  10,   1)
       Mesh    2
       Max CFL number:  0.26E+00 at (   2,  10,   7)
       Max divergence:  0.18E-11 at (   5,   6,  28)
       Min divergence: -0.13E-11 at (   5,   6,   9)
       Max VN number:   0.69E-01 at (   3,  10,   1)
 
       Time Step      70   October 23, 2019  16:18:46
       Step Size:    0.791E-01 s, Total Time:       5.53 s
       Pressure Iterations:      1
       Maximum Velocity Error:  0.28E-16 on Mesh   1 at ( 111   2   1)
       Maximum Pressure Error:  0.00E+00 on Mesh   1 at (   0   0   0)
       ---------------------------------------------------------------
       Mesh    1
       Max CFL number:  0.20E+00 at ( 110,  10,  36)
       Max divergence:  0.36E-11 at (   6,   4,  19)
       Min divergence: -0.43E-11 at (  48,   2,   8)
       Max VN number:   0.58E-01 at ( 110,  10,   1)
       Mesh    2
       Max CFL number:  0.24E+00 at (   3,  10,   8)
       Max divergence:  0.18E-11 at (   5,   6,  28)
       Min divergence: -0.14E-11 at (   5,   6,   9)
       Max VN number:   0.69E-01 at (   4,  10,  40)
 
       Time Step      80   October 23, 2019  16:18:49
       Step Size:    0.791E-01 s, Total Time:       6.32 s
       Pressure Iterations:      1
       Maximum Velocity Error:  0.28E-16 on Mesh   1 at ( 111   6   1)
       Maximum Pressure Error:  0.00E+00 on Mesh   1 at (   0   0   0)
       ---------------------------------------------------------------
       Mesh    1
       Max CFL number:  0.20E+00 at ( 109,   8,  15)
       Max divergence:  0.36E-11 at (   6,   4,  19)
       Min divergence: -0.43E-11 at (  48,   2,   8)
       Max VN number:   0.54E-01 at ( 110,  10,  40)
       Mesh    2
       Max CFL number:  0.25E+00 at (   3,  10,  23)
       Max divergence:  0.18E-11 at (   5,   6,  28)
       Min divergence: -0.14E-11 at (   5,   6,   9)
       Max VN number:   0.72E-01 at (   4,   9,  33)
 
       Time Step      90   October 23, 2019  16:18:52
       Step Size:    0.791E-01 s, Total Time:       7.12 s
       Pressure Iterations:      1
       Maximum Velocity Error:  0.28E-16 on Mesh   1 at ( 111   7   1)
       Maximum Pressure Error:  0.00E+00 on Mesh   1 at (   0   0   0)
       ---------------------------------------------------------------
       Mesh    1
       Max CFL number:  0.20E+00 at ( 110,   9,  33)
       Max divergence:  0.36E-11 at (   6,   4,  19)
       Min divergence: -0.43E-11 at (  48,   2,   8)
       Max VN number:   0.52E-01 at (   2,   1,  40)
       Mesh    2
       Max CFL number:  0.24E+00 at (   4,  10,   9)
       Max divergence:  0.19E-11 at (   5,   6,  28)
       Min divergence: -0.13E-11 at (   5,   6,   9)
       Max VN number:   0.70E-01 at (   5,  10,   1)
 
       Time Step     100   October 23, 2019  16:18:55
       Step Size:    0.791E-01 s, Total Time:       7.91 s
       Pressure Iterations:      1
       Maximum Velocity Error:  0.28E-16 on Mesh   1 at ( 111   2   1)
       Maximum Pressure Error:  0.00E+00 on Mesh   1 at (   0   0   0)
       ---------------------------------------------------------------
       Mesh    1
       Max CFL number:  0.20E+00 at ( 108,   8,  18)
       Max divergence:  0.36E-11 at (   6,   4,  19)
       Min divergence: -0.43E-11 at (  48,   2,   8)
       Max VN number:   0.52E-01 at (   2,  10,  40)
       Mesh    2
       Max CFL number:  0.24E+00 at (   5,  10,  17)
       Max divergence:  0.19E-11 at (   5,   6,  28)
       Min divergence: -0.14E-11 at (   5,   6,   9)
       Max VN number:   0.72E-01 at (   2,  11,   8)
 
       Time Step     200   October 23, 2019  16:19:26
       Step Size:    0.791E-01 s, Total Time:      15.81 s
       Pressure Iterations:      1
       Maximum Velocity Error:  0.28E-16 on Mesh   1 at ( 111   2   3)
       Maximum Pressure Error:  0.00E+00 on Mesh   1 at (   0   0   0)
       ---------------------------------------------------------------
       Mesh    1
       Max CFL number:  0.19E+00 at ( 110,   6,   8)
       Max divergence:  0.38E-11 at (   6,   4,  19)
       Min divergence: -0.46E-11 at (  48,   2,   8)
       Max VN number:   0.52E-01 at (   2,  10,  40)
       Mesh    2
       Max CFL number:  0.20E+00 at (   6,   9,  38)
       Max divergence:  0.20E-11 at (   5,   6,  28)
       Min divergence: -0.15E-11 at (   5,   6,   9)
       Max VN number:   0.48E-01 at (  11,  10,  40)
 
       Time Step     300   October 23, 2019  16:19:57
       Step Size:    0.791E-01 s, Total Time:      23.72 s
       Pressure Iterations:      1
       Maximum Velocity Error:  0.28E-16 on Mesh   1 at ( 111   7   1)
       Maximum Pressure Error:  0.00E+00 on Mesh   1 at (   0   0   0)
       ---------------------------------------------------------------
       Mesh    1
       Max CFL number:  0.19E+00 at ( 102,   8,  36)
       Max divergence:  0.39E-11 at (   6,   4,  19)
       Min divergence: -0.47E-11 at (  48,   2,   8)
       Max VN number:   0.52E-01 at (   2,   1,   1)
       Mesh    2
       Max CFL number:  0.21E+00 at (  11,   9,  18)
       Max divergence:  0.21E-11 at (   5,   6,  28)
       Min divergence: -0.16E-11 at (   5,   6,   9)
       Max VN number:   0.44E-01 at (   1,  10,   7)
 
       Time Step     400   October 23, 2019  16:20:27
       Step Size:    0.791E-01 s, Total Time:      31.62 s
       Pressure Iterations:      1
       Maximum Velocity Error:  0.28E-16 on Mesh   1 at ( 111   4   2)
       Maximum Pressure Error:  0.00E+00 on Mesh   1 at (   0   0   0)
       ---------------------------------------------------------------
       Mesh    1
       Max CFL number:  0.20E+00 at ( 109,   3,  37)
       Max divergence:  0.40E-11 at (   6,   4,  19)
       Min divergence: -0.49E-11 at (  48,   2,   8)
       Max VN number:   0.52E-01 at (   2,  10,   1)
       Mesh    2
       Max CFL number:  0.22E+00 at (  13,   8,  18)
       Max divergence:  0.22E-11 at (   5,   6,  28)
       Min divergence: -0.17E-11 at (   5,   6,   9)
       Max VN number:   0.48E-01 at (  12,  20,   1)
 
